.MODEL NMOS_VTL NMOS LEVEL=27 SOSLEV=2
+VTO=0.814 TOX=0.34E-7 THETA=0.55E-1
+FB=0.15 EC=0.3E7 A=0.1E-6
+UO=370 CGSO=0.46E-9 CGDO=0.46E-9
+RSH=25 LD=0.3E-6
*

.MODEL PMOS_VTL PMOS LEVEL=27 SOSLEV=2
+VTO=-0.7212 TOX=0.34E-7 THETA=0.75E-1
+FB=0.0 EC=0.75E7 A=0.1E-6
+UO=215 CGSO=0.36E-9 CGDO=0.36E-9
+RSH=80 LD=0.2E-6i
*
