# *nmos model

.MODEL NMOS_VTL NMOS LEVEL=13 VFB0=
+ -8.27348E-01, 1.42207E-01, 3.48523E-02
+  7.87811E-01, 0.00000E+00, 0.00000E+00
+  9.01356E-01,-1.96192E-01, 1.89222E-02
+  4.83095E-02,-4.10812E-02,-2.21153E-02
+  2.11768E-03, 3.04656E-04,-1.14155E-03
+  4.93528E+02, 5.39503E-02, 4.54432E-01
+  5.81155E-02, 4.95498E-02,-1.96838E-02
+ -5.88405E-02, 6.06713E-01, 4.88790E-03
+  9.22649E+00,-8.66150E+00, 9.55036E+00
+ -7.95688E-04, 2.67366E-03, 3.88974E-03
+  2.14262E-03,-7.19261E-04,-3.56119E-03
+  2.05529E-03,-3.66841E-03, 1.86866E-03

+ -1.64733E-02,-3.63561E-03, 3.59209E-02
+  4.84793E+02, 3.14763E+02,-3.91874E+01
+ -4.21265E+00,-7.97847E+00, 3.50692E+01
+ -5.83990E+00, 6.64867E+01,-1.99620E+00
+ -1.44106E-02, 8.14508E-02, 7.56591E-04
+  2.30000E-02, 2.30000E+01, 5.00000E+00
+  5.04000E-10, 5.04000E-10, 1.91000E-09
+  1.00000E+00, 0.00000E+00, 0.00000E+00
+  2.00000E+02, 0.00000E+00, 0.00000E+00
+  0.00000E+00, 0.00000E+00, 0.00000E+00
+  0.00000E+00, 0.00000E+00, 0.00000E+00
*n+ diffusion layer
+ 80.0,7.000E-004,4.20E-010,1.00E-008,0.700E000
+ 0.8000e000,0.5,0.33,0,0

.MODEL PMOS_VTL PMOS LEVEL=13 VFB0=
+ -5.63441E-01,-1.06809E-01, 1.32967E-01
+  7.46390E-01, 0.00000E+00, 0.00000E+00
+  6.57533E-01, 1.94464E-01,-1.60925E-01
+ -2.55036E-03, 1.14752E-01,-8.78447E-02
+ -5.59772E-03, 2.50199E-02,-5.66587E-04
+  1.73854E+02, 2.72457E-01, 6.57818E-01
+  1.26943E-01, 4.25293E-02,-4.31672E-02
+ -1.00718E-02, 1.50900E-01,-1.00228E-02
+  1.03128E+01,-3.94500E+00, 1.87986E+00
+  1.55874E-03, 4.80364E-03,-1.45355E-03
+  4.20214E-04,-2.05447E-03,-7.44369E-04
+  1.00044E-02,-4.43607E-03, 1.05796E-03
+ -5.64102E-04, 1.97407E-03, 6.65336E-04
+  1.77550E+02, 1.02937E+02,-2.94207E+01
+  8.73183E+00, 1.51499E+00, 9.06178E-01
+  1.11851E+00, 9.75265E+00,-1.88238E+00
+ -4.70098E-05, 9.43069E-04,-9.19946E-05
+  2.30000E-02, 2.30000E+01, 5.00000E+00
+  1.00000E-09, 1.00000E-09, 1.91000E-09
+  1.00000E+00, 0.00000E+00, 0.00000E+00
+  2.00000E+02, 0.00000E+00, 0.00000E+00
+  0.00000E+00, 0.00000E+00, 0.00000E+00
+  0.00000E+00, 0.00000E+00, 0.00000E+00
*p+ diffusion layer
+140.0,4.0E-004,2.4E-010,1.00E-008,0.700E000
+0.8000e000,0.5,0.33,0,0

