.MODEL NMOS_VTL NMOS LEVEL = 39
+ TOX = 2.000000E-02    TEMP = 2.500000E+01
+ VDD = 5.000000E+00    VGG = 5.000000E+00    VBB =-5.000000E+00
+ DL = 0.000000E+00     DW = 0.000000E+00
+ VGHIGH = 1.270000E-01 LVGHIGH= 0.000000E+00 WVGHIGH= 0.000000E+00
+ VGLOW =-7.820000E-02  LVGLOW = 0.000000E+00 WVGLOW= 0.000000E+00

