
.tran 100p 70n
.plot tran v(Q) v(XN) v(D)

